%nprocshared=8
%mem=24GB
# B3LYP/6-31G(2df,p) opt freq

0_rdkit_conf_1

0 2
 O  -0.57420000   2.34380000  -0.44490000
 O  -0.14550000   1.21060000  -0.96970000
 C  -0.30300000   0.22110000   0.02230000
 O   0.54730000  -0.87130000  -0.26740000
 C   1.87870000  -0.55250000   0.07490000
 C  -1.74490000  -0.28270000   0.01270000
 H  -0.09520000   0.62290000   1.04740000
 H   2.23460000   0.35350000  -0.46410000
 H   2.53220000  -1.39760000  -0.22410000
 H   1.98640000  -0.41810000   1.17390000
 H  -2.00450000  -0.68370000  -0.99030000
 H  -2.44360000   0.54360000   0.26310000
 H  -1.86820000  -1.08960000   0.76620000

