%nprocshared=8
%mem=24GB
# B3LYP/6-31G(2df,p) opt freq

0_rdkit_conf_2

0 2
 O  -1.10610000   2.37910000  -0.14530000
 O  -1.51980000   1.18040000  -0.51120000
 C  -0.57870000   0.27090000  -0.00150000
 O   0.63890000   0.41510000  -0.71590000
 C   1.74340000   0.26540000   0.14890000
 C  -1.11700000  -1.14240000  -0.20800000
 H  -0.47730000   0.43440000   1.10260000
 H   2.67370000   0.30620000  -0.45390000
 H   1.78140000   1.09690000   0.88680000
 H   1.72110000  -0.71690000   0.67070000
 H  -2.09370000  -1.25530000   0.30900000
 H  -1.25730000  -1.34510000  -1.29130000
 H  -0.40850000  -1.88860000   0.20910000

