%nprocshared=8
%mem=24GB
# B3LYP/6-31G(2df,p) opt freq

0_rdkit_conf_4

0 2
 O  -0.97150000  -2.43550000   1.21250000
 O  -0.57600000  -1.27250000   1.69770000
 C  -0.19160000  -0.48060000   0.59850000
 O   0.61400000   0.57800000   1.08830000
 C   1.65090000   0.88520000   0.18130000
 C  -1.44050000   0.11060000  -0.06300000
 H   0.34880000  -1.11380000  -0.15390000
 H   2.19810000   1.77420000   0.55640000
 H   2.37640000   0.04480000   0.11410000
 H   1.25150000   1.13470000  -0.82650000
 H  -2.01040000   0.71930000   0.67100000
 H  -2.09590000  -0.70090000  -0.44390000
 H  -1.15380000   0.75650000  -0.91900000

