%nprocshared=8
%mem=24GB
# B3LYP/6-31G(2df,p) opt freq

1_rdkit_conf_10

0 2
 O   2.95150000  -0.38900000   0.15030000
 O   2.10400000   0.20340000  -0.67030000
 C   1.08800000   0.75000000   0.13370000
 C   0.06210000  -0.31960000   0.52120000
 O  -0.44380000  -0.96540000  -0.63290000
 C  -1.66810000  -0.38490000  -1.02570000
 H   1.50410000   1.23110000   1.04950000
 H   0.57840000   1.54980000  -0.44290000
 H   0.56720000  -1.08390000   1.14880000
 H  -0.72920000   0.13310000   1.16560000
 H  -2.45820000  -0.57920000  -0.26720000
 H  -1.99260000  -0.85330000  -1.97740000
 H  -1.56350000   0.70770000  -1.20620000

