%nprocshared=8
%mem=24GB
# B3LYP/6-31G(2df,p) opt freq

1_rdkit_conf_12

0 2
 O   1.86880000   1.62950000  -0.02700000
 O   2.22120000   0.39080000  -0.31670000
 C   1.30730000  -0.45100000   0.34300000
 C   0.08720000  -0.72630000  -0.54110000
 O  -0.61160000   0.47160000  -0.82570000
 C  -1.67190000   0.65200000   0.08710000
 H   0.99710000  -0.04480000   1.33380000
 H   1.81500000  -1.41810000   0.54370000
 H  -0.55050000  -1.51260000  -0.07080000
 H   0.44260000  -1.15340000  -1.50300000
 H  -1.31120000   0.65150000   1.13930000
 H  -2.45270000  -0.12730000  -0.05600000
 H  -2.14140000   1.63820000  -0.10640000

