%nprocshared=8
%mem=24GB
# B3LYP/6-31G(2df,p) opt freq

1_rdkit_conf_7

0 2
 O   3.16440000   0.35670000   0.35320000
 O   2.06410000   0.53380000  -0.35260000
 C   1.20410000  -0.51380000   0.01070000
 C  -0.10740000  -0.39420000  -0.76330000
 O  -0.71920000   0.85840000  -0.51430000
 C  -1.70130000   0.73610000   0.49090000
 H   1.67160000  -1.49440000  -0.23450000
 H   0.99200000  -0.47930000   1.10280000
 H  -0.76320000  -1.26810000  -0.53400000
 H   0.12080000  -0.45530000  -1.84880000
 H  -2.09780000   1.74570000   0.72310000
 H  -1.27610000   0.31680000   1.42940000
 H  -2.55180000   0.11240000   0.13750000

