%nprocshared=8
%mem=24GB
# B3LYP/6-31G(2df,p) opt freq

1_rdkit_conf_5

0 2
 O   2.19520000   1.43970000   0.55020000
 O   2.16050000   0.18520000   0.95940000
 C   1.55890000  -0.55760000  -0.07290000
 C   0.04000000  -0.57990000   0.09070000
 O  -0.47890000   0.71690000  -0.11580000
 C  -1.87880000   0.69140000   0.04930000
 H   1.93240000  -1.60160000  -0.00730000
 H   1.83720000  -0.17930000  -1.08500000
 H  -0.19920000  -0.94800000   1.11520000
 H  -0.37630000  -1.29040000  -0.65990000
 H  -2.36060000   0.01740000  -0.69360000
 H  -2.27320000   1.71410000  -0.12100000
 H  -2.15700000   0.39210000   1.08430000

