%nprocshared=8
%mem=24GB
# B3LYP/6-31G(2df,p) opt freq

1_rdkit_conf_11

0 2
 O  -1.75820000   1.05710000   1.32970000
 O  -1.29850000  -0.18010000   1.35520000
 C  -1.38000000  -0.66140000   0.03670000
 C  -0.19810000  -0.16840000  -0.79990000
 O   1.01450000  -0.66280000  -0.25960000
 C   1.79700000   0.39260000   0.25200000
 H  -1.35750000  -1.77150000   0.06740000
 H  -2.34160000  -0.37010000  -0.44690000
 H  -0.24790000   0.94330000  -0.89840000
 H  -0.30730000  -0.57700000  -1.82680000
 H   2.10970000   1.08360000  -0.56210000
 H   2.71520000  -0.03370000   0.70540000
 H   1.25270000   0.94840000   1.04750000

