%nprocshared=8
%mem=24GB
# B3LYP/6-31G(2df,p) opt freq

1_rdkit_conf_2

0 2
 O  -3.20750000   0.91620000   0.78360000
 O  -1.91390000   0.73030000   0.96280000
 C  -1.52780000  -0.21890000   0.00420000
 C  -0.03560000  -0.49950000   0.13290000
 O   0.68790000   0.68690000  -0.11810000
 C   2.06790000   0.42680000   0.00660000
 H  -2.08420000  -1.17070000   0.16240000
 H  -1.73780000   0.15980000  -1.02220000
 H   0.16440000  -0.87810000   1.16190000
 H   0.23330000  -1.28780000  -0.60720000
 H   2.40460000  -0.33000000  -0.73650000
 H   2.62400000   1.36520000  -0.19550000
 H   2.32480000   0.09990000   1.03890000

