%nprocshared=8
%mem=24GB
# B3LYP/6-31G(2df,p) opt freq

1_rdkit_conf_8

0 2
 O   2.54400000  -0.47470000  -1.18470000
 O   2.50330000   0.01230000   0.04160000
 C   1.22240000   0.56770000   0.20600000
 C   0.20190000  -0.52280000   0.54420000
 O  -1.04970000   0.05810000   0.85950000
 C  -1.89040000   0.06100000  -0.27340000
 H   1.26410000   1.28900000   1.04980000
 H   0.90650000   1.13980000  -0.69680000
 H   0.55980000  -1.06690000   1.44410000
 H   0.15040000  -1.27630000  -0.27800000
 H  -2.16940000  -0.97690000  -0.56010000
 H  -1.41830000   0.58700000  -1.13240000
 H  -2.82460000   0.60270000  -0.01970000

