%nprocshared=8
%mem=24GB
# B3LYP/6-31G(2df,p) opt freq

1_rdkit_conf_4

0 2
 O  -2.57560000   1.10940000  -0.63210000
 O  -1.96400000   0.07140000  -1.17170000
 C  -1.47380000  -0.70110000  -0.10370000
 C  -0.15740000  -0.13050000   0.42230000
 O   0.79140000  -0.09990000  -0.62310000
 C   2.00370000   0.43120000  -0.13750000
 H  -2.21810000  -0.77800000   0.72320000
 H  -1.29280000  -1.73310000  -0.47260000
 H   0.19410000  -0.78500000   1.25260000
 H  -0.34530000   0.89290000   0.82070000
 H   2.74050000   0.44530000  -0.96670000
 H   2.42470000  -0.20170000   0.67530000
 H   1.87270000   1.47900000   0.21340000

