%nprocshared=8
%mem=24GB
# B3LYP/6-31G(2df,p) opt freq

2_rdkit_conf_4

0 2
 O   0.38990000  -0.66460000   2.04930000
 O  -0.04180000   0.45570000   1.49680000
 C  -0.29280000   0.22780000   0.11270000
 C  -1.37630000   1.23540000  -0.28890000
 O   0.84190000   0.52330000  -0.69740000
 C   2.04680000  -0.00880000  -0.18870000
 C  -0.84460000  -1.18890000  -0.20930000
 H  -1.61430000   1.15040000  -1.37160000
 H  -2.30540000   1.06700000   0.29790000
 H  -1.02340000   2.27080000  -0.09250000
 H   1.98190000  -1.10190000  -0.00850000
 H   2.84340000   0.14820000  -0.94450000
 H   2.36070000   0.52930000   0.73130000
 H  -1.75640000  -1.39330000   0.39230000
 H  -0.10380000  -1.98480000   0.00790000
 H  -1.10570000  -1.26550000  -1.28680000

