%nprocshared=8
%mem=24GB
# B3LYP/6-31G(2df,p) opt freq

2_rdkit_conf_2

0 2
 O  -1.55970000  -1.32350000   1.23330000
 O  -0.31070000  -0.89380000   1.18480000
 C  -0.22630000   0.10490000   0.17620000
 C  -1.08200000   1.31970000   0.57970000
 O   1.10980000   0.58350000   0.05250000
 C   2.07380000  -0.44880000   0.12580000
 C  -0.70860000  -0.42430000  -1.19640000
 H  -2.16090000   1.05950000   0.63060000
 H  -0.76190000   1.69230000   1.57610000
 H  -0.95690000   2.14130000  -0.15840000
 H   3.05510000  -0.03450000  -0.18340000
 H   2.18230000  -0.80970000   1.17120000
 H   1.84460000  -1.29530000  -0.55480000
 H  -0.24230000  -1.40280000  -1.43170000
 H  -1.81070000  -0.56610000  -1.20660000
 H  -0.44570000   0.29770000  -1.99900000

