%nprocshared=8
%mem=24GB
# B3LYP/6-31G(2df,p) opt freq

2_rdkit_conf_3

0 2
 O  -0.64250000   1.75230000   1.92540000
 O  -1.18910000   0.61070000   1.54520000
 C  -0.41560000   0.10830000   0.47530000
 C  -0.65160000   1.00920000  -0.76560000
 O   0.95090000   0.04920000   0.89710000
 C   1.87000000  -0.18470000  -0.15250000
 C  -0.94580000  -1.30930000   0.19220000
 H  -1.74080000   1.16760000  -0.91870000
 H  -0.24430000   0.54550000  -1.68930000
 H  -0.17070000   2.00030000  -0.62420000
 H   1.57980000  -1.03720000  -0.79920000
 H   2.85220000  -0.43890000   0.29560000
 H   2.01800000   0.73450000  -0.75770000
 H  -2.05210000  -1.28930000   0.08660000
 H  -0.68850000  -1.98590000   1.03490000
 H  -0.52990000  -1.73230000  -0.74510000

