%nprocshared=8
%mem=24GB
# B3LYP/6-31G(2df,p) opt freq

3_rdkit_conf_12

0 2
 O  -3.10860000  -0.09670000   0.26300000
 O  -2.24160000   0.83900000  -0.07690000
 C  -1.03960000   0.54650000   0.59720000
 C  -0.01830000  -0.08690000  -0.36250000
 C  -0.48740000  -1.46750000  -0.82570000
 O   1.22060000  -0.24360000   0.30990000
 C   2.11190000   0.79440000  -0.03490000
 H  -1.18430000  -0.10170000   1.49540000
 H  -0.62470000   1.50560000   0.97210000
 H   0.05560000   0.55180000  -1.27750000
 H  -1.42580000  -1.38520000  -1.41370000
 H   0.28750000  -1.92560000  -1.47640000
 H  -0.65830000  -2.13510000   0.04600000
 H   2.40330000   0.72280000  -1.10590000
 H   1.67640000   1.79470000   0.18310000
 H   3.03310000   0.68750000   0.57370000

