%nprocshared=8
%mem=24GB
# B3LYP/6-31G(2df,p) opt freq

3_rdkit_conf_6

0 2
 O   2.09140000  -2.00160000   0.43600000
 O   1.42950000  -1.34770000   1.37240000
 C   1.33060000  -0.01510000   0.93360000
 C   0.18390000   0.14010000  -0.07640000
 C   0.06970000   1.60130000  -0.52110000
 O  -1.02690000  -0.25870000   0.54550000
 C  -1.83790000  -0.97770000  -0.35760000
 H   1.12500000   0.62360000   1.81960000
 H   2.29370000   0.33900000   0.49550000
 H   0.44630000  -0.47430000  -0.97270000
 H  -0.16520000   2.25470000   0.34640000
 H  -0.73880000   1.70780000  -1.27430000
 H   1.02170000   1.93970000  -0.98330000
 H  -2.80620000  -1.20050000   0.13560000
 H  -2.05320000  -0.38340000  -1.27310000
 H  -1.36360000  -1.94730000  -0.62610000

