%nprocshared=8
%mem=24GB
# B3LYP/6-31G(2df,p) opt freq

3_rdkit_conf_13

0 2
 O  -2.49280000   1.59550000   0.38030000
 O  -1.19090000   1.79050000   0.28230000
 C  -0.72620000   0.93690000  -0.73780000
 C  -0.06580000  -0.32100000  -0.14630000
 C  -1.10270000  -1.21690000   0.53310000
 O   0.90990000   0.04940000   0.81440000
 C   2.19770000   0.06490000   0.23830000
 H   0.03490000   1.49200000  -1.32510000
 H  -1.52310000   0.65080000  -1.46600000
 H   0.35700000  -0.91880000  -0.99110000
 H  -0.61490000  -2.15190000   0.88170000
 H  -1.54840000  -0.70650000   1.41310000
 H  -1.90980000  -1.48810000  -0.18070000
 H   2.24390000   0.74650000  -0.63940000
 H   2.51240000  -0.96220000  -0.05020000
 H   2.91900000   0.43890000   0.99350000

