%nprocshared=8
%mem=24GB
# B3LYP/6-31G(2df,p) opt freq

3_rdkit_conf_5

0 2
 O   3.27180000   0.75460000  -0.59990000
 O   2.01580000   0.37160000  -0.72580000
 C   1.50090000   0.31140000   0.57950000
 C   0.03140000  -0.12590000   0.55250000
 C  -0.10240000  -1.54680000  -0.00810000
 O  -0.69970000   0.77900000  -0.25920000
 C  -1.96950000   1.03710000   0.29920000
 H   1.56050000   1.31610000   1.05710000
 H   2.08920000  -0.40780000   1.19470000
 H  -0.31400000  -0.13930000   1.61570000
 H   0.50810000  -2.25700000   0.58950000
 H  -1.16130000  -1.87610000   0.03950000
 H   0.23080000  -1.58340000  -1.06720000
 H  -2.54180000   1.67730000  -0.40300000
 H  -2.54760000   0.09850000   0.44870000
 H  -1.87210000   1.59060000   1.25900000

