%nprocshared=8
%mem=24GB
# B3LYP/6-31G(2df,p) opt freq

3_rdkit_conf_4

0 2
 O   2.66100000   1.91510000  -0.09550000
 O   1.77260000   1.06520000   0.38250000
 C   1.03550000   0.61730000  -0.72570000
 C  -0.03610000  -0.38950000  -0.27960000
 C   0.61260000  -1.65770000   0.27910000
 O  -0.84880000   0.18480000   0.73120000
 C  -2.03500000   0.71230000   0.17860000
 H   0.53510000   1.47920000  -1.22150000
 H   1.71000000   0.13200000  -1.46810000
 H  -0.61630000  -0.70420000  -1.18190000
 H  -0.17640000  -2.38610000   0.56310000
 H   1.26510000  -2.12940000  -0.48660000
 H   1.21900000  -1.42520000   1.18050000
 H  -2.60210000   1.22570000   0.98180000
 H  -1.81780000   1.46210000  -0.61380000
 H  -2.67840000  -0.10160000  -0.22240000

