%nprocshared=8
%mem=24GB
# B3LYP/6-31G(2df,p) opt freq

3_rdkit_conf_14

0 2
 O  -3.00760000   0.51480000  -0.28170000
 O  -2.12010000  -0.27770000  -0.85350000
 C  -1.36780000  -0.86310000   0.18430000
 C  -0.01180000  -0.16080000   0.34720000
 C  -0.19310000   1.27910000   0.84070000
 O   0.65540000  -0.15710000  -0.90460000
 C   2.03750000  -0.38430000  -0.73510000
 H  -1.17690000  -1.92260000  -0.09000000
 H  -1.91270000  -0.88940000   1.15880000
 H   0.54130000  -0.72730000   1.13660000
 H  -0.79320000   1.29560000   1.77550000
 H  -0.70030000   1.89690000   0.06970000
 H   0.79630000   1.73330000   1.05720000
 H   2.53560000  -0.29010000  -1.72170000
 H   2.49360000   0.36690000  -0.05310000
 H   2.22390000  -1.41430000  -0.35900000

