%nprocshared=8
%mem=24GB
# B3LYP/6-31G(2df,p) opt freq

3_rdkit_conf_8

0 2
 O  -1.82100000  -1.46160000   1.67230000
 O  -2.21770000  -0.60050000   0.75380000
 C  -1.23840000  -0.61630000  -0.25620000
 C  -0.02310000   0.24840000   0.12920000
 C  -0.43990000   1.70750000   0.32550000
 O   0.93790000   0.19830000  -0.91240000
 C   1.94680000  -0.74280000  -0.61650000
 H  -0.91730000  -1.65860000  -0.48650000
 H  -1.69100000  -0.21530000  -1.18840000
 H   0.37880000  -0.10530000   1.11050000
 H  -0.88890000   2.11410000  -0.60610000
 H   0.45060000   2.31830000   0.58540000
 H  -1.17560000   1.79630000   1.15300000
 H   2.55360000  -0.40780000   0.25340000
 H   1.52050000  -1.75260000  -0.42630000
 H   2.62490000  -0.82210000  -1.49070000

