%nprocshared=8
%mem=24GB
# B3LYP/6-31G(2df,p) opt freq

3_rdkit_conf_10

0 2
 O  -1.38300000  -0.92820000   2.03230000
 O  -1.85420000  -0.90940000   0.79940000
 C  -0.77050000  -1.20280000  -0.05030000
 C  -0.00850000   0.07500000  -0.45190000
 C  -0.92370000   1.03270000  -1.21750000
 O   0.47850000   0.74180000   0.70110000
 C   1.81210000   0.36660000   0.96870000
 H  -1.17040000  -1.68580000  -0.96760000
 H  -0.07310000  -1.94430000   0.40490000
 H   0.80530000  -0.21440000  -1.16140000
 H  -0.34550000   1.92570000  -1.53700000
 H  -1.33240000   0.53740000  -2.12420000
 H  -1.76580000   1.36940000  -0.57570000
 H   2.49260000   0.73330000   0.16900000
 H   1.91080000  -0.73480000   1.08800000
 H   2.12780000   0.83770000   1.92200000

