%nprocshared=8
%mem=24GB
# B3LYP/6-31G(2df,p) opt freq

3_rdkit_conf_3

0 2
 O   3.32400000   0.76880000   0.27030000
 O   2.27980000   0.02950000   0.59180000
 C   1.21170000   0.51960000  -0.17640000
 C  -0.06110000  -0.28850000   0.11650000
 C   0.11320000  -1.74620000  -0.31560000
 O  -1.14590000   0.26330000  -0.61140000
 C  -1.93330000   1.09180000   0.21600000
 H   1.45190000   0.45250000  -1.26270000
 H   1.02700000   1.58700000   0.08040000
 H  -0.23160000  -0.29770000   1.22170000
 H   0.32890000  -1.80780000  -1.40400000
 H  -0.82020000  -2.31120000  -0.10710000
 H   0.94240000  -2.22530000   0.24730000
 H  -1.32590000   1.90030000   0.67970000
 H  -2.71630000   1.57220000  -0.40560000
 H  -2.44460000   0.49170000   1.00070000

