%nprocshared=8
%mem=24GB
# B3LYP/6-31G(2df,p) opt freq

4_rdkit_conf_8

0 2
 O  -0.32980000   1.44270000  -2.40540000
 O  -0.35810000   1.60350000  -1.09470000
 C   0.31240000   0.49890000  -0.53250000
 C  -0.60920000  -0.73890000  -0.53900000
 C  -1.89710000  -0.51900000   0.25530000
 O   0.65630000   0.83180000   0.80300000
 C   1.89960000   0.26840000   1.16180000
 H   1.21930000   0.26430000  -1.15020000
 H  -0.06730000  -1.60850000  -0.10980000
 H  -0.87280000  -1.00030000  -1.58660000
 H  -2.51920000  -1.43770000   0.21220000
 H  -1.66640000  -0.30100000   1.31950000
 H  -2.48170000   0.32150000  -0.17460000
 H   2.72550000   0.73670000   0.58240000
 H   1.90470000  -0.83490000   1.02230000
 H   2.08380000   0.47250000   2.23640000

