%nprocshared=8
%mem=24GB
# B3LYP/6-31G(2df,p) opt freq

4_rdkit_conf_7

0 2
 O   0.60960000  -2.70650000  -0.03530000
 O   0.26050000  -1.76500000  -0.89260000
 C   0.03680000  -0.58660000  -0.14790000
 C  -1.32080000  -0.01240000  -0.56830000
 C  -1.68980000   1.23480000   0.23430000
 O   1.04340000   0.36030000  -0.45530000
 C   2.21620000   0.07940000   0.27610000
 H  -0.02920000  -0.77480000   0.95660000
 H  -1.30060000   0.24290000  -1.65050000
 H  -2.10780000  -0.78200000  -0.41070000
 H  -2.68660000   1.60190000  -0.08890000
 H  -1.73450000   0.99800000   1.31870000
 H  -0.94540000   2.04140000   0.06510000
 H   2.99170000   0.82180000  -0.00290000
 H   2.04030000   0.17580000   1.37040000
 H   2.61600000  -0.92880000   0.03120000

