%nprocshared=8
%mem=24GB
# B3LYP/6-31G(2df,p) opt freq

4_rdkit_conf_5

0 2
 O   0.69030000  -2.74900000  -0.23660000
 O  -0.34260000  -1.92830000  -0.19770000
 C   0.17400000  -0.63890000  -0.41280000
 C  -0.99560000   0.34120000  -0.60220000
 C  -1.88800000   0.44330000   0.63550000
 O   0.95310000  -0.25490000   0.71090000
 C   2.07060000   0.50530000   0.30660000
 H   0.75370000  -0.64540000  -1.37200000
 H  -0.59980000   1.35080000  -0.84440000
 H  -1.61330000   0.00820000  -1.46460000
 H  -1.30860000   0.82210000   1.50380000
 H  -2.32260000  -0.54730000   0.88650000
 H  -2.71970000   1.15090000   0.43370000
 H   2.60780000   0.85430000   1.21210000
 H   2.77640000  -0.11690000  -0.28670000
 H   1.76430000   1.40450000  -0.27200000

