%nprocshared=8
%mem=24GB
# B3LYP/6-31G(2df,p) opt freq

4_rdkit_conf_9

0 2
 O   0.18630000  -2.59910000  -0.47450000
 O   0.05660000  -1.74220000   0.52220000
 C  -0.29990000  -0.49600000  -0.03680000
 C   0.93290000   0.42410000  -0.04230000
 C   2.02910000  -0.07900000  -0.97990000
 O  -1.28970000   0.07920000   0.80040000
 C  -2.25770000   0.77180000   0.04160000
 H  -0.65920000  -0.60940000  -1.09590000
 H   1.34280000   0.50570000   0.98810000
 H   0.63270000   1.44230000  -0.37080000
 H   2.86640000   0.65020000  -0.99510000
 H   1.63570000  -0.18770000  -2.01300000
 H   2.42340000  -1.05600000  -0.62970000
 H  -1.79150000   1.55190000  -0.60000000
 H  -2.85160000   0.06400000  -0.57760000
 H  -2.95620000   1.28020000   0.73730000

