0 82
     RDKit          3D

 13 12  0  0  0  0  0  0  0  0999 V2000
   -0.5742    2.3438   -0.4449 O   0  0  0  0  0  1  0  0  0  0  0  0
   -0.1455    1.2106   -0.9697 O   0  0  0  0  0  0  0  0  0  0  0  0
   -0.3030    0.2211    0.0223 C   0  0  0  0  0  0  0  0  0  0  0  0
    0.5473   -0.8713   -0.2674 O   0  0  0  0  0  0  0  0  0  0  0  0
    1.8787   -0.5525    0.0749 C   0  0  0  0  0  0  0  0  0  0  0  0
   -1.7449   -0.2827    0.0127 C   0  0  0  0  0  0  0  0  0  0  0  0
   -0.0952    0.6229    1.0474 H   0  0  0  0  0  0  0  0  0  0  0  0
    2.2346    0.3535   -0.4641 H   0  0  0  0  0  0  0  0  0  0  0  0
    2.5322   -1.3976   -0.2241 H   0  0  0  0  0  0  0  0  0  0  0  0
    1.9864   -0.4181    1.1739 H   0  0  0  0  0  0  0  0  0  0  0  0
   -2.0045   -0.6837   -0.9903 H   0  0  0  0  0  0  0  0  0  0  0  0
   -2.4436    0.5436    0.2631 H   0  0  0  0  0  0  0  0  0  0  0  0
   -1.8682   -1.0896    0.7662 H   0  0  0  0  0  0  0  0  0  0  0  0
  1  2  1  0
  2  3  1  0
  3  4  1  0
  4  5  1  0
  3  6  1  0
  3  7  1  0
  5  8  1  0
  5  9  1  0
  5 10  1  0
  6 11  1  0
  6 12  1  0
  6 13  1  0
M  RAD  1   1   2
M  END
>  <Energy>  (1) 
9.137003768485226

>  <Real charge>  (1) 
0

>  <Mult>  (1) 
2

$$$$
0 143
     RDKit          3D

 13 12  0  0  0  0  0  0  0  0999 V2000
   -1.1061    2.3791   -0.1453 O   0  0  0  0  0  1  0  0  0  0  0  0
   -1.5198    1.1804   -0.5112 O   0  0  0  0  0  0  0  0  0  0  0  0
   -0.5787    0.2709   -0.0015 C   0  0  0  0  0  0  0  0  0  0  0  0
    0.6389    0.4151   -0.7159 O   0  0  0  0  0  0  0  0  0  0  0  0
    1.7434    0.2654    0.1489 C   0  0  0  0  0  0  0  0  0  0  0  0
   -1.1170   -1.1424   -0.2080 C   0  0  0  0  0  0  0  0  0  0  0  0
   -0.4773    0.4344    1.1026 H   0  0  0  0  0  0  0  0  0  0  0  0
    2.6737    0.3062   -0.4539 H   0  0  0  0  0  0  0  0  0  0  0  0
    1.7814    1.0969    0.8868 H   0  0  0  0  0  0  0  0  0  0  0  0
    1.7211   -0.7169    0.6707 H   0  0  0  0  0  0  0  0  0  0  0  0
   -2.0937   -1.2553    0.3090 H   0  0  0  0  0  0  0  0  0  0  0  0
   -1.2573   -1.3451   -1.2913 H   0  0  0  0  0  0  0  0  0  0  0  0
   -0.4085   -1.8886    0.2091 H   0  0  0  0  0  0  0  0  0  0  0  0
  1  2  1  0
  2  3  1  0
  3  4  1  0
  4  5  1  0
  3  6  1  0
  3  7  1  0
  5  8  1  0
  5  9  1  0
  5 10  1  0
  6 11  1  0
  6 12  1  0
  6 13  1  0
M  RAD  1   1   2
M  END
>  <Energy>  (2) 
9.208828455525309

>  <Real charge>  (2) 
0

>  <Mult>  (2) 
2

$$$$
0 167
     RDKit          3D

 13 12  0  0  0  0  0  0  0  0999 V2000
   -0.2134   -2.2760   -0.5544 O   0  0  0  0  0  1  0  0  0  0  0  0
   -0.5401   -1.4136    0.3904 O   0  0  0  0  0  0  0  0  0  0  0  0
   -0.4133   -0.1225   -0.1658 C   0  0  0  0  0  0  0  0  0  0  0  0
    0.6462    0.5675    0.4686 O   0  0  0  0  0  0  0  0  0  0  0  0
    1.8854    0.1361   -0.0493 C   0  0  0  0  0  0  0  0  0  0  0  0
   -1.7053    0.6402    0.1004 C   0  0  0  0  0  0  0  0  0  0  0  0
   -0.2858   -0.1289   -1.2801 H   0  0  0  0  0  0  0  0  0  0  0  0
    1.9724    0.3691   -1.1337 H   0  0  0  0  0  0  0  0  0  0  0  0
    2.0451   -0.9493    0.1314 H   0  0  0  0  0  0  0  0  0  0  0  0
    2.6958    0.6833    0.4745 H   0  0  0  0  0  0  0  0  0  0  0  0
   -2.5591    0.1210   -0.3849 H   0  0  0  0  0  0  0  0  0  0  0  0
   -1.8963    0.7046    1.1931 H   0  0  0  0  0  0  0  0  0  0  0  0
   -1.6315    1.6685   -0.3136 H   0  0  0  0  0  0  0  0  0  0  0  0
  1  2  1  0
  2  3  1  0
  3  4  1  0
  4  5  1  0
  3  6  1  0
  3  7  1  0
  5  8  1  0
  5  9  1  0
  5 10  1  0
  6 11  1  0
  6 12  1  0
  6 13  1  0
M  RAD  1   1   2
M  END
>  <Energy>  (3) 
9.80687610616263

>  <Real charge>  (3) 
0

>  <Mult>  (3) 
2

$$$$
0 104
     RDKit          3D

 13 12  0  0  0  0  0  0  0  0999 V2000
   -0.9715   -2.4355    1.2125 O   0  0  0  0  0  1  0  0  0  0  0  0
   -0.5760   -1.2725    1.6977 O   0  0  0  0  0  0  0  0  0  0  0  0
   -0.1916   -0.4806    0.5985 C   0  0  0  0  0  0  0  0  0  0  0  0
    0.6140    0.5780    1.0883 O   0  0  0  0  0  0  0  0  0  0  0  0
    1.6509    0.8852    0.1813 C   0  0  0  0  0  0  0  0  0  0  0  0
   -1.4405    0.1106   -0.0630 C   0  0  0  0  0  0  0  0  0  0  0  0
    0.3488   -1.1138   -0.1539 H   0  0  0  0  0  0  0  0  0  0  0  0
    2.1981    1.7742    0.5564 H   0  0  0  0  0  0  0  0  0  0  0  0
    2.3764    0.0448    0.1141 H   0  0  0  0  0  0  0  0  0  0  0  0
    1.2515    1.1347   -0.8265 H   0  0  0  0  0  0  0  0  0  0  0  0
   -2.0104    0.7193    0.6710 H   0  0  0  0  0  0  0  0  0  0  0  0
   -2.0959   -0.7009   -0.4439 H   0  0  0  0  0  0  0  0  0  0  0  0
   -1.1538    0.7565   -0.9190 H   0  0  0  0  0  0  0  0  0  0  0  0
  1  2  1  0
  2  3  1  0
  3  4  1  0
  4  5  1  0
  3  6  1  0
  3  7  1  0
  5  8  1  0
  5  9  1  0
  5 10  1  0
  6 11  1  0
  6 12  1  0
  6 13  1  0
M  RAD  1   1   2
M  END
>  <Energy>  (4) 
10.462548721611586

>  <Real charge>  (4) 
0

>  <Mult>  (4) 
2

$$$$
