2 215
     RDKit          3D

 16 15  0  0  0  0  0  0  0  0999 V2000
   -0.1001    2.2591    0.7514 O   0  0  0  0  0  1  0  0  0  0  0  0
   -0.0949    1.0290    1.2342 O   0  0  0  0  0  0  0  0  0  0  0  0
   -0.3303    0.1482    0.1509 C   0  0  0  0  0  0  0  0  0  0  0  0
   -0.1752   -1.3027    0.6539 C   0  0  0  0  0  0  0  0  0  0  0  0
    0.5382    0.4163   -0.9497 O   0  0  0  0  0  0  0  0  0  0  0  0
    1.9067    0.2818   -0.6151 C   0  0  0  0  0  0  0  0  0  0  0  0
   -1.7785    0.3212   -0.3433 C   0  0  0  0  0  0  0  0  0  0  0  0
   -0.9743   -1.5500    1.3858 H   0  0  0  0  0  0  0  0  0  0  0  0
    0.7971   -1.4410    1.1719 H   0  0  0  0  0  0  0  0  0  0  0  0
   -0.2346   -2.0162   -0.1959 H   0  0  0  0  0  0  0  0  0  0  0  0
    2.1647    0.7391    0.3646 H   0  0  0  0  0  0  0  0  0  0  0  0
    2.2057   -0.7875   -0.6323 H   0  0  0  0  0  0  0  0  0  0  0  0
    2.5082    0.8028   -1.3878 H   0  0  0  0  0  0  0  0  0  0  0  0
   -2.4959    0.1953    0.4962 H   0  0  0  0  0  0  0  0  0  0  0  0
   -1.9247    1.3316   -0.7808 H   0  0  0  0  0  0  0  0  0  0  0  0
   -2.0120   -0.4273   -1.1312 H   0  0  0  0  0  0  0  0  0  0  0  0
  1  2  1  0
  2  3  1  0
  3  4  1  0
  3  5  1  0
  5  6  1  0
  3  7  1  0
  4  8  1  0
  4  9  1  0
  4 10  1  0
  6 11  1  0
  6 12  1  0
  6 13  1  0
  7 14  1  0
  7 15  1  0
  7 16  1  0
M  RAD  1   1   2
M  END
>  <Energy>  (1) 
16.479669950471045

>  <Real charge>  (1) 
0

>  <Mult>  (1) 
2

$$$$
2 243
     RDKit          3D

 16 15  0  0  0  0  0  0  0  0999 V2000
   -1.5597   -1.3235    1.2333 O   0  0  0  0  0  1  0  0  0  0  0  0
   -0.3107   -0.8938    1.1848 O   0  0  0  0  0  0  0  0  0  0  0  0
   -0.2263    0.1049    0.1762 C   0  0  0  0  0  0  0  0  0  0  0  0
   -1.0820    1.3197    0.5797 C   0  0  0  0  0  0  0  0  0  0  0  0
    1.1098    0.5835    0.0525 O   0  0  0  0  0  0  0  0  0  0  0  0
    2.0738   -0.4488    0.1258 C   0  0  0  0  0  0  0  0  0  0  0  0
   -0.7086   -0.4243   -1.1964 C   0  0  0  0  0  0  0  0  0  0  0  0
   -2.1609    1.0595    0.6306 H   0  0  0  0  0  0  0  0  0  0  0  0
   -0.7619    1.6923    1.5761 H   0  0  0  0  0  0  0  0  0  0  0  0
   -0.9569    2.1413   -0.1584 H   0  0  0  0  0  0  0  0  0  0  0  0
    3.0551   -0.0345   -0.1834 H   0  0  0  0  0  0  0  0  0  0  0  0
    2.1823   -0.8097    1.1712 H   0  0  0  0  0  0  0  0  0  0  0  0
    1.8446   -1.2953   -0.5548 H   0  0  0  0  0  0  0  0  0  0  0  0
   -0.2423   -1.4028   -1.4317 H   0  0  0  0  0  0  0  0  0  0  0  0
   -1.8107   -0.5661   -1.2066 H   0  0  0  0  0  0  0  0  0  0  0  0
   -0.4457    0.2977   -1.9990 H   0  0  0  0  0  0  0  0  0  0  0  0
  1  2  1  0
  2  3  1  0
  3  4  1  0
  3  5  1  0
  5  6  1  0
  3  7  1  0
  4  8  1  0
  4  9  1  0
  4 10  1  0
  6 11  1  0
  6 12  1  0
  6 13  1  0
  7 14  1  0
  7 15  1  0
  7 16  1  0
M  RAD  1   1   2
M  END
>  <Energy>  (2) 
17.76562155917324

>  <Real charge>  (2) 
0

>  <Mult>  (2) 
2

$$$$
2 183
     RDKit          3D

 16 15  0  0  0  0  0  0  0  0999 V2000
   -0.6425    1.7523    1.9254 O   0  0  0  0  0  1  0  0  0  0  0  0
   -1.1891    0.6107    1.5452 O   0  0  0  0  0  0  0  0  0  0  0  0
   -0.4156    0.1083    0.4753 C   0  0  0  0  0  0  0  0  0  0  0  0
   -0.6516    1.0092   -0.7656 C   0  0  0  0  0  0  0  0  0  0  0  0
    0.9509    0.0492    0.8971 O   0  0  0  0  0  0  0  0  0  0  0  0
    1.8700   -0.1847   -0.1525 C   0  0  0  0  0  0  0  0  0  0  0  0
   -0.9458   -1.3093    0.1922 C   0  0  0  0  0  0  0  0  0  0  0  0
   -1.7408    1.1676   -0.9187 H   0  0  0  0  0  0  0  0  0  0  0  0
   -0.2443    0.5455   -1.6893 H   0  0  0  0  0  0  0  0  0  0  0  0
   -0.1707    2.0003   -0.6242 H   0  0  0  0  0  0  0  0  0  0  0  0
    1.5798   -1.0372   -0.7992 H   0  0  0  0  0  0  0  0  0  0  0  0
    2.8522   -0.4389    0.2956 H   0  0  0  0  0  0  0  0  0  0  0  0
    2.0180    0.7345   -0.7577 H   0  0  0  0  0  0  0  0  0  0  0  0
   -2.0521   -1.2893    0.0866 H   0  0  0  0  0  0  0  0  0  0  0  0
   -0.6885   -1.9859    1.0349 H   0  0  0  0  0  0  0  0  0  0  0  0
   -0.5299   -1.7323   -0.7451 H   0  0  0  0  0  0  0  0  0  0  0  0
  1  2  1  0
  2  3  1  0
  3  4  1  0
  3  5  1  0
  5  6  1  0
  3  7  1  0
  4  8  1  0
  4  9  1  0
  4 10  1  0
  6 11  1  0
  6 12  1  0
  6 13  1  0
  7 14  1  0
  7 15  1  0
  7 16  1  0
M  RAD  1   1   2
M  END
>  <Energy>  (3) 
18.923303565894134

>  <Real charge>  (3) 
0

>  <Mult>  (3) 
2

$$$$
2 107
     RDKit          3D

 16 15  0  0  0  0  0  0  0  0999 V2000
    0.3899   -0.6646    2.0493 O   0  0  0  0  0  1  0  0  0  0  0  0
   -0.0418    0.4557    1.4968 O   0  0  0  0  0  0  0  0  0  0  0  0
   -0.2928    0.2278    0.1127 C   0  0  0  0  0  0  0  0  0  0  0  0
   -1.3763    1.2354   -0.2889 C   0  0  0  0  0  0  0  0  0  0  0  0
    0.8419    0.5233   -0.6974 O   0  0  0  0  0  0  0  0  0  0  0  0
    2.0468   -0.0088   -0.1887 C   0  0  0  0  0  0  0  0  0  0  0  0
   -0.8446   -1.1889   -0.2093 C   0  0  0  0  0  0  0  0  0  0  0  0
   -1.6143    1.1504   -1.3716 H   0  0  0  0  0  0  0  0  0  0  0  0
   -2.3054    1.0670    0.2979 H   0  0  0  0  0  0  0  0  0  0  0  0
   -1.0234    2.2708   -0.0925 H   0  0  0  0  0  0  0  0  0  0  0  0
    1.9819   -1.1019   -0.0085 H   0  0  0  0  0  0  0  0  0  0  0  0
    2.8434    0.1482   -0.9445 H   0  0  0  0  0  0  0  0  0  0  0  0
    2.3607    0.5293    0.7313 H   0  0  0  0  0  0  0  0  0  0  0  0
   -1.7564   -1.3933    0.3923 H   0  0  0  0  0  0  0  0  0  0  0  0
   -0.1038   -1.9848    0.0079 H   0  0  0  0  0  0  0  0  0  0  0  0
   -1.1057   -1.2655   -1.2868 H   0  0  0  0  0  0  0  0  0  0  0  0
  1  2  1  0
  2  3  1  0
  3  4  1  0
  3  5  1  0
  5  6  1  0
  3  7  1  0
  4  8  1  0
  4  9  1  0
  4 10  1  0
  6 11  1  0
  6 12  1  0
  6 13  1  0
  7 14  1  0
  7 15  1  0
  7 16  1  0
M  RAD  1   1   2
M  END
>  <Energy>  (4) 
20.61647832144188

>  <Real charge>  (4) 
0

>  <Mult>  (4) 
2

$$$$
