3 280
     RDKit          3D

 16 15  0  0  0  0  0  0  0  0999 V2000
    3.4247   -0.2960   -0.6388 O   0  0  0  0  0  1  0  0  0  0  0  0
    2.3181    0.2050   -0.1245 O   0  0  0  0  0  0  0  0  0  0  0  0
    1.3064   -0.7238   -0.4136 C   0  0  0  0  0  0  0  0  0  0  0  0
   -0.0260   -0.2167    0.1463 C   0  0  0  0  0  0  0  0  0  0  0  0
   -1.1335   -1.2411   -0.1197 C   0  0  0  0  0  0  0  0  0  0  0  0
   -0.3518    1.0065   -0.4936 O   0  0  0  0  0  0  0  0  0  0  0  0
   -0.9230    1.9128    0.4245 C   0  0  0  0  0  0  0  0  0  0  0  0
    1.2160   -0.8586   -1.5164 H   0  0  0  0  0  0  0  0  0  0  0  0
    1.5515   -1.7050    0.0545 H   0  0  0  0  0  0  0  0  0  0  0  0
    0.1013   -0.1181    1.2529 H   0  0  0  0  0  0  0  0  0  0  0  0
   -0.8806   -2.2150    0.3514 H   0  0  0  0  0  0  0  0  0  0  0  0
   -1.2703   -1.3910   -1.2122 H   0  0  0  0  0  0  0  0  0  0  0  0
   -2.0925   -0.8862    0.3122 H   0  0  0  0  0  0  0  0  0  0  0  0
   -0.1755    2.2234    1.1875 H   0  0  0  0  0  0  0  0  0  0  0  0
   -1.2411    2.8217   -0.1260 H   0  0  0  0  0  0  0  0  0  0  0  0
   -1.8235    1.4820    0.9155 H   0  0  0  0  0  0  0  0  0  0  0  0
  1  2  1  0
  2  3  1  0
  3  4  1  0
  4  5  1  0
  4  6  1  0
  6  7  1  0
  3  8  1  0
  3  9  1  0
  4 10  1  0
  5 11  1  0
  5 12  1  0
  5 13  1  0
  7 14  1  0
  7 15  1  0
  7 16  1  0
M  RAD  1   1   2
M  END
>  <Energy>  (1) 
9.847158355399207

>  <Real charge>  (1) 
0

>  <Mult>  (1) 
2

$$$$
3 272
     RDKit          3D

 16 15  0  0  0  0  0  0  0  0999 V2000
    3.4230   -1.0660    0.2185 O   0  0  0  0  0  1  0  0  0  0  0  0
    2.1912   -1.1380   -0.2482 O   0  0  0  0  0  0  0  0  0  0  0  0
    1.4886   -0.0859    0.3607 C   0  0  0  0  0  0  0  0  0  0  0  0
    0.0311   -0.0811   -0.1145 C   0  0  0  0  0  0  0  0  0  0  0  0
   -0.6908   -1.3545    0.3421 C   0  0  0  0  0  0  0  0  0  0  0  0
   -0.6162    1.0501    0.4446 O   0  0  0  0  0  0  0  0  0  0  0  0
   -1.4964    1.6353   -0.4902 C   0  0  0  0  0  0  0  0  0  0  0  0
    1.5186   -0.1896    1.4701 H   0  0  0  0  0  0  0  0  0  0  0  0
    1.9539    0.8868    0.0806 H   0  0  0  0  0  0  0  0  0  0  0  0
    0.0520   -0.0671   -1.2325 H   0  0  0  0  0  0  0  0  0  0  0  0
   -1.7419   -1.3447   -0.0147 H   0  0  0  0  0  0  0  0  0  0  0  0
   -0.6943   -1.4231    1.4511 H   0  0  0  0  0  0  0  0  0  0  0  0
   -0.1943   -2.2558   -0.0759 H   0  0  0  0  0  0  0  0  0  0  0  0
   -2.2476    0.9016   -0.8575 H   0  0  0  0  0  0  0  0  0  0  0  0
   -2.0459    2.4597    0.0085 H   0  0  0  0  0  0  0  0  0  0  0  0
   -0.9311    2.0722   -1.3426 H   0  0  0  0  0  0  0  0  0  0  0  0
  1  2  1  0
  2  3  1  0
  3  4  1  0
  4  5  1  0
  4  6  1  0
  6  7  1  0
  3  8  1  0
  3  9  1  0
  4 10  1  0
  5 11  1  0
  5 12  1  0
  5 13  1  0
  7 14  1  0
  7 15  1  0
  7 16  1  0
M  RAD  1   1   2
M  END
>  <Energy>  (2) 
10.251380155517483

>  <Real charge>  (2) 
0

>  <Mult>  (2) 
2

$$$$
3 292
     RDKit          3D

 16 15  0  0  0  0  0  0  0  0999 V2000
    3.3240    0.7688    0.2703 O   0  0  0  0  0  1  0  0  0  0  0  0
    2.2798    0.0295    0.5918 O   0  0  0  0  0  0  0  0  0  0  0  0
    1.2117    0.5196   -0.1764 C   0  0  0  0  0  0  0  0  0  0  0  0
   -0.0611   -0.2885    0.1165 C   0  0  0  0  0  0  0  0  0  0  0  0
    0.1132   -1.7462   -0.3156 C   0  0  0  0  0  0  0  0  0  0  0  0
   -1.1459    0.2633   -0.6114 O   0  0  0  0  0  0  0  0  0  0  0  0
   -1.9333    1.0918    0.2160 C   0  0  0  0  0  0  0  0  0  0  0  0
    1.4519    0.4525   -1.2627 H   0  0  0  0  0  0  0  0  0  0  0  0
    1.0270    1.5870    0.0804 H   0  0  0  0  0  0  0  0  0  0  0  0
   -0.2316   -0.2977    1.2217 H   0  0  0  0  0  0  0  0  0  0  0  0
    0.3289   -1.8078   -1.4040 H   0  0  0  0  0  0  0  0  0  0  0  0
   -0.8202   -2.3112   -0.1071 H   0  0  0  0  0  0  0  0  0  0  0  0
    0.9424   -2.2253    0.2473 H   0  0  0  0  0  0  0  0  0  0  0  0
   -1.3259    1.9003    0.6797 H   0  0  0  0  0  0  0  0  0  0  0  0
   -2.7163    1.5722   -0.4056 H   0  0  0  0  0  0  0  0  0  0  0  0
   -2.4446    0.4917    1.0007 H   0  0  0  0  0  0  0  0  0  0  0  0
  1  2  1  0
  2  3  1  0
  3  4  1  0
  4  5  1  0
  4  6  1  0
  6  7  1  0
  3  8  1  0
  3  9  1  0
  4 10  1  0
  5 11  1  0
  5 12  1  0
  5 13  1  0
  7 14  1  0
  7 15  1  0
  7 16  1  0
M  RAD  1   1   2
M  END
>  <Energy>  (3) 
10.2543670441138

>  <Real charge>  (3) 
0

>  <Mult>  (3) 
2

$$$$
3 60
     RDKit          3D

 16 15  0  0  0  0  0  0  0  0999 V2000
    2.6610    1.9151   -0.0955 O   0  0  0  0  0  1  0  0  0  0  0  0
    1.7726    1.0652    0.3825 O   0  0  0  0  0  0  0  0  0  0  0  0
    1.0355    0.6173   -0.7257 C   0  0  0  0  0  0  0  0  0  0  0  0
   -0.0361   -0.3895   -0.2796 C   0  0  0  0  0  0  0  0  0  0  0  0
    0.6126   -1.6577    0.2791 C   0  0  0  0  0  0  0  0  0  0  0  0
   -0.8488    0.1848    0.7312 O   0  0  0  0  0  0  0  0  0  0  0  0
   -2.0350    0.7123    0.1786 C   0  0  0  0  0  0  0  0  0  0  0  0
    0.5351    1.4792   -1.2215 H   0  0  0  0  0  0  0  0  0  0  0  0
    1.7100    0.1320   -1.4681 H   0  0  0  0  0  0  0  0  0  0  0  0
   -0.6163   -0.7042   -1.1819 H   0  0  0  0  0  0  0  0  0  0  0  0
   -0.1764   -2.3861    0.5631 H   0  0  0  0  0  0  0  0  0  0  0  0
    1.2651   -2.1294   -0.4866 H   0  0  0  0  0  0  0  0  0  0  0  0
    1.2190   -1.4252    1.1805 H   0  0  0  0  0  0  0  0  0  0  0  0
   -2.6021    1.2257    0.9818 H   0  0  0  0  0  0  0  0  0  0  0  0
   -1.8178    1.4621   -0.6138 H   0  0  0  0  0  0  0  0  0  0  0  0
   -2.6784   -0.1016   -0.2224 H   0  0  0  0  0  0  0  0  0  0  0  0
  1  2  1  0
  2  3  1  0
  3  4  1  0
  4  5  1  0
  4  6  1  0
  6  7  1  0
  3  8  1  0
  3  9  1  0
  4 10  1  0
  5 11  1  0
  5 12  1  0
  5 13  1  0
  7 14  1  0
  7 15  1  0
  7 16  1  0
M  RAD  1   1   2
M  END
>  <Energy>  (4) 
10.277758314446388

>  <Real charge>  (4) 
0

>  <Mult>  (4) 
2

$$$$
3 191
     RDKit          3D

 16 15  0  0  0  0  0  0  0  0999 V2000
    3.2718    0.7546   -0.5999 O   0  0  0  0  0  1  0  0  0  0  0  0
    2.0158    0.3716   -0.7258 O   0  0  0  0  0  0  0  0  0  0  0  0
    1.5009    0.3114    0.5795 C   0  0  0  0  0  0  0  0  0  0  0  0
    0.0314   -0.1259    0.5525 C   0  0  0  0  0  0  0  0  0  0  0  0
   -0.1024   -1.5468   -0.0081 C   0  0  0  0  0  0  0  0  0  0  0  0
   -0.6997    0.7790   -0.2592 O   0  0  0  0  0  0  0  0  0  0  0  0
   -1.9695    1.0371    0.2992 C   0  0  0  0  0  0  0  0  0  0  0  0
    1.5605    1.3161    1.0571 H   0  0  0  0  0  0  0  0  0  0  0  0
    2.0892   -0.4078    1.1947 H   0  0  0  0  0  0  0  0  0  0  0  0
   -0.3140   -0.1393    1.6157 H   0  0  0  0  0  0  0  0  0  0  0  0
    0.5081   -2.2570    0.5895 H   0  0  0  0  0  0  0  0  0  0  0  0
   -1.1613   -1.8761    0.0395 H   0  0  0  0  0  0  0  0  0  0  0  0
    0.2308   -1.5834   -1.0672 H   0  0  0  0  0  0  0  0  0  0  0  0
   -2.5418    1.6773   -0.4030 H   0  0  0  0  0  0  0  0  0  0  0  0
   -2.5476    0.0985    0.4487 H   0  0  0  0  0  0  0  0  0  0  0  0
   -1.8721    1.5906    1.2590 H   0  0  0  0  0  0  0  0  0  0  0  0
  1  2  1  0
  2  3  1  0
  3  4  1  0
  4  5  1  0
  4  6  1  0
  6  7  1  0
  3  8  1  0
  3  9  1  0
  4 10  1  0
  5 11  1  0
  5 12  1  0
  5 13  1  0
  7 14  1  0
  7 15  1  0
  7 16  1  0
M  RAD  1   1   2
M  END
>  <Energy>  (5) 
10.328103682609392

>  <Real charge>  (5) 
0

>  <Mult>  (5) 
2

$$$$
3 10
     RDKit          3D

 16 15  0  0  0  0  0  0  0  0999 V2000
    2.0914   -2.0016    0.4360 O   0  0  0  0  0  1  0  0  0  0  0  0
    1.4295   -1.3477    1.3724 O   0  0  0  0  0  0  0  0  0  0  0  0
    1.3306   -0.0151    0.9336 C   0  0  0  0  0  0  0  0  0  0  0  0
    0.1839    0.1401   -0.0764 C   0  0  0  0  0  0  0  0  0  0  0  0
    0.0697    1.6013   -0.5211 C   0  0  0  0  0  0  0  0  0  0  0  0
   -1.0269   -0.2587    0.5455 O   0  0  0  0  0  0  0  0  0  0  0  0
   -1.8379   -0.9777   -0.3576 C   0  0  0  0  0  0  0  0  0  0  0  0
    1.1250    0.6236    1.8196 H   0  0  0  0  0  0  0  0  0  0  0  0
    2.2937    0.3390    0.4955 H   0  0  0  0  0  0  0  0  0  0  0  0
    0.4463   -0.4743   -0.9727 H   0  0  0  0  0  0  0  0  0  0  0  0
   -0.1652    2.2547    0.3464 H   0  0  0  0  0  0  0  0  0  0  0  0
   -0.7388    1.7078   -1.2743 H   0  0  0  0  0  0  0  0  0  0  0  0
    1.0217    1.9397   -0.9833 H   0  0  0  0  0  0  0  0  0  0  0  0
   -2.8062   -1.2005    0.1356 H   0  0  0  0  0  0  0  0  0  0  0  0
   -2.0532   -0.3834   -1.2731 H   0  0  0  0  0  0  0  0  0  0  0  0
   -1.3636   -1.9473   -0.6261 H   0  0  0  0  0  0  0  0  0  0  0  0
  1  2  1  0
  2  3  1  0
  3  4  1  0
  4  5  1  0
  4  6  1  0
  6  7  1  0
  3  8  1  0
  3  9  1  0
  4 10  1  0
  5 11  1  0
  5 12  1  0
  5 13  1  0
  7 14  1  0
  7 15  1  0
  7 16  1  0
M  RAD  1   1   2
M  END
>  <Energy>  (6) 
10.869464394731184

>  <Real charge>  (6) 
0

>  <Mult>  (6) 
2

$$$$
3 266
     RDKit          3D

 16 15  0  0  0  0  0  0  0  0999 V2000
   -1.2278    2.4883    0.6314 O   0  0  0  0  0  1  0  0  0  0  0  0
   -1.2582    1.4593    1.4578 O   0  0  0  0  0  0  0  0  0  0  0  0
   -1.4587    0.3130    0.6667 C   0  0  0  0  0  0  0  0  0  0  0  0
   -0.1136   -0.2563    0.1920 C   0  0  0  0  0  0  0  0  0  0  0  0
   -0.3325   -1.5894   -0.5300 C   0  0  0  0  0  0  0  0  0  0  0  0
    0.4870    0.6661   -0.7025 O   0  0  0  0  0  0  0  0  0  0  0  0
    1.8781    0.7425   -0.4805 C   0  0  0  0  0  0  0  0  0  0  0  0
   -2.1318    0.5149   -0.2007 H   0  0  0  0  0  0  0  0  0  0  0  0
   -1.9700   -0.4455    1.2978 H   0  0  0  0  0  0  0  0  0  0  0  0
    0.4991   -0.4522    1.1067 H   0  0  0  0  0  0  0  0  0  0  0  0
   -0.8192   -2.3219    0.1488 H   0  0  0  0  0  0  0  0  0  0  0  0
   -0.9721   -1.4447   -1.4271 H   0  0  0  0  0  0  0  0  0  0  0  0
    0.6420   -2.0114   -0.8535 H   0  0  0  0  0  0  0  0  0  0  0  0
    2.0934    1.1856    0.5168 H   0  0  0  0  0  0  0  0  0  0  0  0
    2.3607   -0.2555   -0.5750 H   0  0  0  0  0  0  0  0  0  0  0  0
    2.3236    1.4072   -1.2487 H   0  0  0  0  0  0  0  0  0  0  0  0
  1  2  1  0
  2  3  1  0
  3  4  1  0
  4  5  1  0
  4  6  1  0
  6  7  1  0
  3  8  1  0
  3  9  1  0
  4 10  1  0
  5 11  1  0
  5 12  1  0
  5 13  1  0
  7 14  1  0
  7 15  1  0
  7 16  1  0
M  RAD  1   1   2
M  END
>  <Energy>  (7) 
11.203842911948822

>  <Real charge>  (7) 
0

>  <Mult>  (7) 
2

$$$$
3 206
     RDKit          3D

 16 15  0  0  0  0  0  0  0  0999 V2000
   -1.8210   -1.4616    1.6723 O   0  0  0  0  0  1  0  0  0  0  0  0
   -2.2177   -0.6005    0.7538 O   0  0  0  0  0  0  0  0  0  0  0  0
   -1.2384   -0.6163   -0.2562 C   0  0  0  0  0  0  0  0  0  0  0  0
   -0.0231    0.2484    0.1292 C   0  0  0  0  0  0  0  0  0  0  0  0
   -0.4399    1.7075    0.3255 C   0  0  0  0  0  0  0  0  0  0  0  0
    0.9379    0.1983   -0.9124 O   0  0  0  0  0  0  0  0  0  0  0  0
    1.9468   -0.7428   -0.6165 C   0  0  0  0  0  0  0  0  0  0  0  0
   -0.9173   -1.6586   -0.4865 H   0  0  0  0  0  0  0  0  0  0  0  0
   -1.6910   -0.2153   -1.1884 H   0  0  0  0  0  0  0  0  0  0  0  0
    0.3788   -0.1053    1.1105 H   0  0  0  0  0  0  0  0  0  0  0  0
   -0.8889    2.1141   -0.6061 H   0  0  0  0  0  0  0  0  0  0  0  0
    0.4506    2.3183    0.5854 H   0  0  0  0  0  0  0  0  0  0  0  0
   -1.1756    1.7963    1.1530 H   0  0  0  0  0  0  0  0  0  0  0  0
    2.5536   -0.4078    0.2534 H   0  0  0  0  0  0  0  0  0  0  0  0
    1.5205   -1.7526   -0.4263 H   0  0  0  0  0  0  0  0  0  0  0  0
    2.6249   -0.8221   -1.4907 H   0  0  0  0  0  0  0  0  0  0  0  0
  1  2  1  0
  2  3  1  0
  3  4  1  0
  4  5  1  0
  4  6  1  0
  6  7  1  0
  3  8  1  0
  3  9  1  0
  4 10  1  0
  5 11  1  0
  5 12  1  0
  5 13  1  0
  7 14  1  0
  7 15  1  0
  7 16  1  0
M  RAD  1   1   2
M  END
>  <Energy>  (8) 
11.266158809217183

>  <Real charge>  (8) 
0

>  <Mult>  (8) 
2

$$$$
3 174
     RDKit          3D

 16 15  0  0  0  0  0  0  0  0999 V2000
    2.5409    0.6207    1.5789 O   0  0  0  0  0  1  0  0  0  0  0  0
    2.3456    0.9632    0.3191 O   0  0  0  0  0  0  0  0  0  0  0  0
    0.9783    1.2726    0.1970 C   0  0  0  0  0  0  0  0  0  0  0  0
    0.1286    0.0018    0.0347 C   0  0  0  0  0  0  0  0  0  0  0  0
    0.5262   -0.7555   -1.2379 C   0  0  0  0  0  0  0  0  0  0  0  0
   -1.2332    0.3872   -0.0568 O   0  0  0  0  0  0  0  0  0  0  0  0
   -2.0576   -0.5161    0.6469 C   0  0  0  0  0  0  0  0  0  0  0  0
    0.6176    1.8632    1.0719 H   0  0  0  0  0  0  0  0  0  0  0  0
    0.8447    1.9198   -0.6966 H   0  0  0  0  0  0  0  0  0  0  0  0
    0.3392   -0.6536    0.9154 H   0  0  0  0  0  0  0  0  0  0  0  0
    1.5921   -1.0639   -1.1909 H   0  0  0  0  0  0  0  0  0  0  0  0
   -0.0920   -1.6713   -1.3445 H   0  0  0  0  0  0  0  0  0  0  0  0
    0.3712   -0.1176   -2.1343 H   0  0  0  0  0  0  0  0  0  0  0  0
   -3.1170   -0.2324    0.4807 H   0  0  0  0  0  0  0  0  0  0  0  0
   -1.8596   -0.4597    1.7400 H   0  0  0  0  0  0  0  0  0  0  0  0
   -1.9252   -1.5584    0.2814 H   0  0  0  0  0  0  0  0  0  0  0  0
  1  2  1  0
  2  3  1  0
  3  4  1  0
  4  5  1  0
  4  6  1  0
  6  7  1  0
  3  8  1  0
  3  9  1  0
  4 10  1  0
  5 11  1  0
  5 12  1  0
  5 13  1  0
  7 14  1  0
  7 15  1  0
  7 16  1  0
M  RAD  1   1   2
M  END
>  <Energy>  (9) 
11.35534096297999

>  <Real charge>  (9) 
0

>  <Mult>  (9) 
2

$$$$
3 208
     RDKit          3D

 16 15  0  0  0  0  0  0  0  0999 V2000
   -1.3830   -0.9282    2.0323 O   0  0  0  0  0  1  0  0  0  0  0  0
   -1.8542   -0.9094    0.7994 O   0  0  0  0  0  0  0  0  0  0  0  0
   -0.7705   -1.2028   -0.0503 C   0  0  0  0  0  0  0  0  0  0  0  0
   -0.0085    0.0750   -0.4519 C   0  0  0  0  0  0  0  0  0  0  0  0
   -0.9237    1.0327   -1.2175 C   0  0  0  0  0  0  0  0  0  0  0  0
    0.4785    0.7418    0.7011 O   0  0  0  0  0  0  0  0  0  0  0  0
    1.8121    0.3666    0.9687 C   0  0  0  0  0  0  0  0  0  0  0  0
   -1.1704   -1.6858   -0.9676 H   0  0  0  0  0  0  0  0  0  0  0  0
   -0.0731   -1.9443    0.4049 H   0  0  0  0  0  0  0  0  0  0  0  0
    0.8053   -0.2144   -1.1614 H   0  0  0  0  0  0  0  0  0  0  0  0
   -0.3455    1.9257   -1.5370 H   0  0  0  0  0  0  0  0  0  0  0  0
   -1.3324    0.5374   -2.1242 H   0  0  0  0  0  0  0  0  0  0  0  0
   -1.7658    1.3694   -0.5757 H   0  0  0  0  0  0  0  0  0  0  0  0
    2.4926    0.7333    0.1690 H   0  0  0  0  0  0  0  0  0  0  0  0
    1.9108   -0.7348    1.0880 H   0  0  0  0  0  0  0  0  0  0  0  0
    2.1278    0.8377    1.9220 H   0  0  0  0  0  0  0  0  0  0  0  0
  1  2  1  0
  2  3  1  0
  3  4  1  0
  4  5  1  0
  4  6  1  0
  6  7  1  0
  3  8  1  0
  3  9  1  0
  4 10  1  0
  5 11  1  0
  5 12  1  0
  5 13  1  0
  7 14  1  0
  7 15  1  0
  7 16  1  0
M  RAD  1   1   2
M  END
>  <Energy>  (10) 
11.605372727434293

>  <Real charge>  (10) 
0

>  <Mult>  (10) 
2

$$$$
3 55
     RDKit          3D

 16 15  0  0  0  0  0  0  0  0999 V2000
   -0.9808    2.6154    0.4702 O   0  0  0  0  0  1  0  0  0  0  0  0
   -1.7565    1.5937    0.1587 O   0  0  0  0  0  0  0  0  0  0  0  0
   -1.0945    0.8802   -0.8592 C   0  0  0  0  0  0  0  0  0  0  0  0
   -0.1456   -0.1807   -0.2778 C   0  0  0  0  0  0  0  0  0  0  0  0
   -0.9151   -1.1818    0.5920 C   0  0  0  0  0  0  0  0  0  0  0  0
    0.8493    0.4636    0.5013 O   0  0  0  0  0  0  0  0  0  0  0  0
    2.1051   -0.1530    0.3187 C   0  0  0  0  0  0  0  0  0  0  0  0
   -1.8624    0.3742   -1.4831 H   0  0  0  0  0  0  0  0  0  0  0  0
   -0.5328    1.5566   -1.5463 H   0  0  0  0  0  0  0  0  0  0  0  0
    0.2758   -0.7361   -1.1518 H   0  0  0  0  0  0  0  0  0  0  0  0
   -1.7342   -1.6522    0.0073 H   0  0  0  0  0  0  0  0  0  0  0  0
   -1.3474   -0.6764    1.4818 H   0  0  0  0  0  0  0  0  0  0  0  0
   -0.2333   -1.9853    0.9406 H   0  0  0  0  0  0  0  0  0  0  0  0
    2.8357    0.3210    1.0058 H   0  0  0  0  0  0  0  0  0  0  0  0
    2.0661   -1.2377    0.5625 H   0  0  0  0  0  0  0  0  0  0  0  0
    2.4705   -0.0013   -0.7208 H   0  0  0  0  0  0  0  0  0  0  0  0
  1  2  1  0
  2  3  1  0
  3  4  1  0
  4  5  1  0
  4  6  1  0
  6  7  1  0
  3  8  1  0
  3  9  1  0
  4 10  1  0
  5 11  1  0
  5 12  1  0
  5 13  1  0
  7 14  1  0
  7 15  1  0
  7 16  1  0
M  RAD  1   1   2
M  END
>  <Energy>  (11) 
11.78135167534005

>  <Real charge>  (11) 
0

>  <Mult>  (11) 
2

$$$$
3 8
     RDKit          3D

 16 15  0  0  0  0  0  0  0  0999 V2000
   -3.1086   -0.0967    0.2630 O   0  0  0  0  0  1  0  0  0  0  0  0
   -2.2416    0.8390   -0.0769 O   0  0  0  0  0  0  0  0  0  0  0  0
   -1.0396    0.5465    0.5972 C   0  0  0  0  0  0  0  0  0  0  0  0
   -0.0183   -0.0869   -0.3625 C   0  0  0  0  0  0  0  0  0  0  0  0
   -0.4874   -1.4675   -0.8257 C   0  0  0  0  0  0  0  0  0  0  0  0
    1.2206   -0.2436    0.3099 O   0  0  0  0  0  0  0  0  0  0  0  0
    2.1119    0.7944   -0.0349 C   0  0  0  0  0  0  0  0  0  0  0  0
   -1.1843   -0.1017    1.4954 H   0  0  0  0  0  0  0  0  0  0  0  0
   -0.6247    1.5056    0.9721 H   0  0  0  0  0  0  0  0  0  0  0  0
    0.0556    0.5518   -1.2775 H   0  0  0  0  0  0  0  0  0  0  0  0
   -1.4258   -1.3852   -1.4137 H   0  0  0  0  0  0  0  0  0  0  0  0
    0.2875   -1.9256   -1.4764 H   0  0  0  0  0  0  0  0  0  0  0  0
   -0.6583   -2.1351    0.0460 H   0  0  0  0  0  0  0  0  0  0  0  0
    2.4033    0.7228   -1.1059 H   0  0  0  0  0  0  0  0  0  0  0  0
    1.6764    1.7947    0.1831 H   0  0  0  0  0  0  0  0  0  0  0  0
    3.0331    0.6875    0.5737 H   0  0  0  0  0  0  0  0  0  0  0  0
  1  2  1  0
  2  3  1  0
  3  4  1  0
  4  5  1  0
  4  6  1  0
  6  7  1  0
  3  8  1  0
  3  9  1  0
  4 10  1  0
  5 11  1  0
  5 12  1  0
  5 13  1  0
  7 14  1  0
  7 15  1  0
  7 16  1  0
M  RAD  1   1   2
M  END
>  <Energy>  (12) 
12.015530069718471

>  <Real charge>  (12) 
0

>  <Mult>  (12) 
2

$$$$
3 66
     RDKit          3D

 16 15  0  0  0  0  0  0  0  0999 V2000
   -2.4928    1.5955    0.3803 O   0  0  0  0  0  1  0  0  0  0  0  0
   -1.1909    1.7905    0.2823 O   0  0  0  0  0  0  0  0  0  0  0  0
   -0.7262    0.9369   -0.7378 C   0  0  0  0  0  0  0  0  0  0  0  0
   -0.0658   -0.3210   -0.1463 C   0  0  0  0  0  0  0  0  0  0  0  0
   -1.1027   -1.2169    0.5331 C   0  0  0  0  0  0  0  0  0  0  0  0
    0.9099    0.0494    0.8144 O   0  0  0  0  0  0  0  0  0  0  0  0
    2.1977    0.0649    0.2383 C   0  0  0  0  0  0  0  0  0  0  0  0
    0.0349    1.4920   -1.3251 H   0  0  0  0  0  0  0  0  0  0  0  0
   -1.5231    0.6508   -1.4660 H   0  0  0  0  0  0  0  0  0  0  0  0
    0.3570   -0.9188   -0.9911 H   0  0  0  0  0  0  0  0  0  0  0  0
   -0.6149   -2.1519    0.8817 H   0  0  0  0  0  0  0  0  0  0  0  0
   -1.5484   -0.7065    1.4131 H   0  0  0  0  0  0  0  0  0  0  0  0
   -1.9098   -1.4881   -0.1807 H   0  0  0  0  0  0  0  0  0  0  0  0
    2.2439    0.7465   -0.6394 H   0  0  0  0  0  0  0  0  0  0  0  0
    2.5124   -0.9622   -0.0502 H   0  0  0  0  0  0  0  0  0  0  0  0
    2.9190    0.4389    0.9935 H   0  0  0  0  0  0  0  0  0  0  0  0
  1  2  1  0
  2  3  1  0
  3  4  1  0
  4  5  1  0
  4  6  1  0
  6  7  1  0
  3  8  1  0
  3  9  1  0
  4 10  1  0
  5 11  1  0
  5 12  1  0
  5 13  1  0
  7 14  1  0
  7 15  1  0
  7 16  1  0
M  RAD  1   1   2
M  END
>  <Energy>  (13) 
12.019670340942374

>  <Real charge>  (13) 
0

>  <Mult>  (13) 
2

$$$$
3 161
     RDKit          3D

 16 15  0  0  0  0  0  0  0  0999 V2000
   -3.0076    0.5148   -0.2817 O   0  0  0  0  0  1  0  0  0  0  0  0
   -2.1201   -0.2777   -0.8535 O   0  0  0  0  0  0  0  0  0  0  0  0
   -1.3678   -0.8631    0.1843 C   0  0  0  0  0  0  0  0  0  0  0  0
   -0.0118   -0.1608    0.3472 C   0  0  0  0  0  0  0  0  0  0  0  0
   -0.1931    1.2791    0.8407 C   0  0  0  0  0  0  0  0  0  0  0  0
    0.6554   -0.1571   -0.9046 O   0  0  0  0  0  0  0  0  0  0  0  0
    2.0375   -0.3843   -0.7351 C   0  0  0  0  0  0  0  0  0  0  0  0
   -1.1769   -1.9226   -0.0900 H   0  0  0  0  0  0  0  0  0  0  0  0
   -1.9127   -0.8894    1.1588 H   0  0  0  0  0  0  0  0  0  0  0  0
    0.5413   -0.7273    1.1366 H   0  0  0  0  0  0  0  0  0  0  0  0
   -0.7932    1.2956    1.7755 H   0  0  0  0  0  0  0  0  0  0  0  0
   -0.7003    1.8969    0.0697 H   0  0  0  0  0  0  0  0  0  0  0  0
    0.7963    1.7333    1.0572 H   0  0  0  0  0  0  0  0  0  0  0  0
    2.5356   -0.2901   -1.7217 H   0  0  0  0  0  0  0  0  0  0  0  0
    2.4936    0.3669   -0.0531 H   0  0  0  0  0  0  0  0  0  0  0  0
    2.2239   -1.4143   -0.3590 H   0  0  0  0  0  0  0  0  0  0  0  0
  1  2  1  0
  2  3  1  0
  3  4  1  0
  4  5  1  0
  4  6  1  0
  6  7  1  0
  3  8  1  0
  3  9  1  0
  4 10  1  0
  5 11  1  0
  5 12  1  0
  5 13  1  0
  7 14  1  0
  7 15  1  0
  7 16  1  0
M  RAD  1   1   2
M  END
>  <Energy>  (14) 
12.056775176789532

>  <Real charge>  (14) 
0

>  <Mult>  (14) 
2

$$$$
